Version 4.1
SHEET 1 1036 680
WIRE -16 32 -160 32
WIRE 112 32 -16 32
WIRE 224 32 112 32
WIRE 352 32 224 32
WIRE 576 32 384 32
WIRE 800 32 576 32
WIRE 224 128 224 32
WIRE -112 176 -160 176
WIRE -16 176 -16 112
WIRE -16 176 -112 176
WIRE 208 176 -16 176
WIRE 384 176 384 112
WIRE 384 176 304 176
WIRE 768 176 384 176
WIRE 800 176 768 176
WIRE -160 192 -160 176
WIRE 352 240 352 32
WIRE 112 288 112 112
WIRE 112 288 0 288
WIRE 336 288 112 288
WIRE 576 288 576 112
WIRE 576 288 432 288
WIRE 656 288 576 288
WIRE 688 288 656 288
WIRE 0 304 0 288
WIRE 688 304 688 288
WIRE 688 400 688 384
FLAG 800 96 0
FLAG -160 96 0
FLAG -160 272 0
FLAG 800 256 0
FLAG 688 400 0
FLAG 0 384 0
FLAG 656 288 5Vin
FLAG -112 176 3.3Vin
FLAG 768 176 5Vout
FLAG 0 288 3.3Vout
SYMBOL nmos 304 128 R90
WINDOW 0 74 14 VRight 2
WINDOW 3 120 7 VRight 2
SYMATTR InstName M1
SYMATTR Value Si7336ADP
SYMBOL nmos 432 240 R90
WINDOW 0 74 14 VRight 2
WINDOW 3 120 7 VRight 2
SYMATTR InstName M2
SYMATTR Value Si7336ADP
SYMBOL voltage -160 176 R0
WINDOW 3 194 111 Invisible 2
WINDOW 123 0 0 Left 0
WINDOW 39 0 0 Left 0
SYMATTR InstName V3
SYMATTR Value PULSE(0 3.3V 0 0 0 0.5m 1m)
SYMBOL res -32 16 R0
SYMATTR InstName R1
SYMATTR Value 4.7K
SYMBOL res 96 16 R0
SYMATTR InstName R2
SYMATTR Value 4.7K
SYMBOL res 368 16 R0
SYMATTR InstName R3
SYMATTR Value 4.7K
SYMBOL res 560 16 R0
SYMATTR InstName R4
SYMATTR Value 4.7K
SYMBOL res 784 160 R0
SYMATTR InstName R5
SYMATTR Value 1Meg
SYMBOL Misc\\cell -160 32 R0
WINDOW 123 0 0 Left 0
WINDOW 39 0 0 Left 0
SYMATTR InstName V1
SYMATTR Value 3.3V
SYMBOL Misc\\cell 800 32 R0
WINDOW 123 0 0 Left 0
WINDOW 39 0 0 Left 0
SYMATTR InstName V2
SYMATTR Value 5V
SYMBOL voltage 688 288 R0
WINDOW 123 0 0 Left 0
WINDOW 39 0 0 Left 0
SYMATTR InstName V4
SYMATTR Value PULSE(0 5V 0 0 0 0.5m 1m)
SYMBOL res -16 288 R0
SYMATTR InstName R6
SYMATTR Value 1Meg
TEXT 184 424 Left 2 !.tran 5m
TEXT -208 448 VLeft 2 ;PULSE(0 3.3V 0 0 0 0.5m 1m)
